
     RDKit          3D

  5  4  0  0  0  0  0  0  0  0999 V2000
   -0.4602    1.5740   -0.7188 Cl  0  0  0  0  0  0  0  0  0  0  0  0
   -0.0554    0.0519    0.0772 C   0  0  0  0  0  0  0  0  0  0  0  0
   -0.2144    0.2209    1.4369 F   0  0  0  0  0  0  0  0  0  0  0  0
   -1.2397   -1.3788   -0.4824 Br  0  0  0  0  0  0  0  0  0  0  0  0
    1.9698   -0.4681   -0.3129 I   0  0  0  0  0  0  0  0  0  0  0  0
  1  2  1  0
  2  3  1  0
  2  4  1  0
  2  5  1  0
M  END
$$$$
